**$ENCRYPTED_LIB
**$INTERFACE
***
*$
*  TPS79933 Model
*****************************************************************************
*  (C) Copyright 2013 Texas Instruments Incorporated. All rights reserved.
*****************************************************************************
** This model is designed as an aid for customers of Texas Instruments.
** TI and its licensors and suppliers make no warrenties, either expressed
** or implied, with respect to this model, including the warranties of 
** merchantability or fitness for a particular purpose.  The model is
** provided solely on an "as is" basis.  The entire risk as to its quality
** and performance is with the customer
*****************************************************************************
*
** Released by: WEBENCH(R) Design Center, Texas Instruments Inc.
* Part: TPS79933
* Date: 05/08/2013
* Model Type: TRANSIENT
* Simulator: PSPICE
* Simulator Version: 16.2
* EVM Order Number: TPS799XXEVM - 105
* EVM Users Guide: SLVU130 - June 2005
* Datasheet: SBVS056J - JANUARY 2005 - REVISED AUGUST 2010
*
* Model Version: Final 2.00
*
*****************************************************************************
*
* Updates:
*
* Final 1.00 - 09/12/2011
* Release to Web.
*
* Final 2.00
* Updated to new Subcircuit format.
*
*****************************************************************************
*
* Model Usage Notes:
* 
* 1. Input and quiescent current of the part have not been modeled.
* 2. Temperature effects have not been modeled.
* 3. Noise has not been modeled, including the NR pin function.
*
*****************************************************************************
* source LDO_Create.php - TPS79933

.SUBCKT TPS79933 IN GND EN NR OUT 
$CDNENCSTART
eee8c5c7a2bc4b01f045f303678664e7916da0bae22e8cb0bba041dd67c69ce448ea70148a9ac1670c8926c1ac5057c8ccfcd77bf87ca9dc40c40a1d666b9792
917b9156cc313aad2d0e0f65bdf697e713bcb2b8f70e2f38ed9959e9ad2fa7b755f193befa8b8489dbada8cfcc20fff29e3c2e01a31804125dc1ec952f72cb54
a978e94c36773adb16f765d2c4154084f9711863f437b81a0ebc41119a774753be84757630d258d26778cff6a0c49323287051f6579e632e3096beae7a6e8b57
3d273c855c384f492a860cedf8de389f124c739a866dc486f9711863f437b81a0ebc41119a774753be84757630d258d26778cff6a0c49323efc408a896363e65
48bda7b295ccf92edaed9bfae2cdb295641d3019da38fe06f9711863f437b81a0ebc41119a774753be84757630d258d26778cff6a0c49323efc408a896363e65
d4b05e5c8edb5c3e71d3ef526c37ec08cdbbb8dee9959017f9711863f437b81a0ebc41119a774753be84757630d258d26778cff6a0c49323efc408a896363e65
b664d6c2dc59734777218007593e0651641d3019da38fe06f9711863f437b81a0ebc41119a774753be84757630d258d26778cff6a0c49323efc408a896363e65
81e028c3073097282a860cedf8de389fcdbbb8dee9959017f9711863f437b81a0ebc41119a774753be84757630d258d26778cff6a0c49323efc408a896363e65
86afbc1aee22ff37ed37bbd56fb14fae710f626c2faf14a6f9711863f437b81a0ebc41119a774753be84757630d258d26778cff6a0c49323efc408a896363e65
2fe647370cec69fd0bca9faca70c7814303d7240d8c3139df9711863f437b81a0ebc41119a774753be84757630d258d26778cff6a0c49323efc408a896363e65
a2e6125a7805e4578d1d24b4ed84be23710f626c2faf14a6f9711863f437b81a0ebc41119a774753be84757630d258d26778cff6a0c49323efc408a896363e65
5b6581ea2a67035e0bca9faca70c7814303d7240d8c3139df9711863f437b81a0ebc41119a774753be84757630d258d26778cff6a0c49323efc408a896363e65
d3901b402aa5d89e49bbd2da3014478d710f626c2faf14a6f9711863f437b81a0ebc41119a774753be84757630d258d26778cff6a0c49323efc408a896363e65
ac4742fca34d69460bca9faca70c7814303d7240d8c3139df9711863f437b81a0ebc41119a774753be84757630d258d26778cff6a0c49323efc408a896363e65
765e5d0d1ce54804244bc3d56c91eb55303d7240d8c3139df9711863f437b81a0ebc41119a774753be84757630d258d26778cff6a0c49323efc408a896363e65
cbb3372c19ca9e30c4c07ff504cde340b3c031d8aa2be79df9711863f437b81a0ebc41119a774753be84757630d258d26778cff6a0c49323efc408a896363e65
f14cf76642918a40323bd90571aef0b223aa138e4e545ee3ed53b4ce5c20ee270f9c9258c40fd866627eb26299bdf8390a5dad4d0e1f8bfd5f96ca3596370b09
8deeceaf810ff9cdcbd7c1199905269afdef9feaed13bf6adbada8cfcc20fff29e3c2e01a31804126d50ee7110ea031ca5f649cc8a342e5ec8458a7a01b8d9a2
b2ec1ed81a61fd2bcc4ffbf0c73f304b941756b8cd834d2628f7c4dc884bdd78bf86940d135d0e9bd37e3b054e0976c4825aac386d9eb9c87b81ddcee3f32170
$CDNENCFINISH
.ENDS TPS79933 

*$
.SUBCKT ldo_basic out vgnd vin bias enb fbk 
+ PARAMS: 
+ rinp = 1e07 
+ rout = 0.1
+ psrr = 5e-4
+ pole = 100
+ zero = 10e3
+ venb = 1.0
+ ehys = 0.1
+ uvlo = 2.0
+ uhys = 0.1
+ vref = 1.20
+ drop = 0.25
+ ilim = 0.10
+ ttrn = 1e-4
$CDNENCSTART
eee8c5c7a2bc4b01f045f303678664e7916da0bae22e8cb0bba041dd67c69ce448ea70148a9ac1670c8926c1ac5057c8ccfcd77bf87ca9dc40c40a1d666b9792
4347bbcc88b41045b2b2d6721565035c2e45f6e452ab6211e68c3774d4356a267ef4d3ffd06f5c72eeff1de65945ff3ae82edc8269f42d5e4648b7936008e8ef
10dd58ec17e5a0786707e5f36ffac0a442aa9af2062ac3be7c3f51e5b19c2df5696b928ce6283d9ce0f1750e34b70c471f5bfd41e7be411962a6195364985e6d
2feb1bcc3a286de53d910266d8071816c68cf5f7b3466d874b597e9a3f03201288c68490bb2436aec59f10eb13ec4555d959fba73bc3a621afa3167638fa7967
dc7551175c78c79588edc3d0e1e5ff10e68c3774d4356a267ef4d3ffd06f5c72eeff1de65945ff3ae82edc8269f42d5e45643ad47f605a4df3313f3d9228856b
077982b14025c2f08310ae5a8769fe9de68c3774d4356a267ef4d3ffd06f5c72eeff1de65945ff3ae82edc8269f42d5e45643ad47f605a4df3313f3d9228856b
9052d4ed4ff749103d910266d8071816c68cf5f7b3466d8789dc4da1d25de40c1d7c11391c055c0aa409bb87652d8d38d00c5b0f2db752f6091f93dcd2cfb489
c2356fa0b0fe3ea9f9711863f437b81a0ebc41119a774753be84757630d258d26778cff6a0c49323287051f6579e632e7aaa1c9b3820aa0a1ab61fcdc5391130
05b7e86e06388fb6e52281cf65977eb6e68c3774d4356a267ef4d3ffd06f5c72eeff1de65945ff3ae82edc8269f42d5e45643ad47f605a4df3313f3d9228856b
13e3e41056ac947f8310ae5a8769fe9de68c3774d4356a267ef4d3ffd06f5c72eeff1de65945ff3ae82edc8269f42d5e45643ad47f605a4df3313f3d9228856b
4eeda04684ae69b3ab70bfde9f21045ef00f783d0aa23958957518460293608bc7ce23c501a87fd722ebdabb998488c716d4de926be1d23f7bad1337e2b103a6
890c2f699597470ef7967f172341ce3ae728fe5f898089f7c412cfc4c3a2032c170549096205fc1c6fb399732bef73fee0f1750e34b70c470f198ed18f71f634
5ec39dc1d78a143ec286bf32a6587ea6c314e2c5284449e7ae5379d7748492b8dbada8cfcc20fff29e3c2e01a31804126d50ee7110ea031c29c9ed8e380890e0
08b29e5331a63248a26df98864ddd0943a8d0e744922d2c201448fcf87f83f6ae68c3774d4356a267ef4d3ffd06f5c72eeff1de65945ff3ab1ef79e006200809
dad24e348b9e51c6d0c74cef739ec370fe14e8ed893f8790e0f1750e34b70c471f5bfd41e7be4119d904e9835ab17144c8254869505aeefcfe2d497929eb4d29
df35ada287e444dd101926e1075e027e74f0f18d77ab6f4842e25fd16a755095492a808ed039b20c8a006828b44094ffceaba08124e51d795a1b857f06a4107c
b0377cc99e8ecd1fd8e1621f01185185e68c3774d4356a267ef4d3ffd06f5c72eeff1de65945ff3ae82edc8269f42d5e45643ad47f605a4df3313f3d9228856b
ef79812fcc22557b8310ae5a8769fe9de68c3774d4356a267ef4d3ffd06f5c72eeff1de65945ff3ae82edc8269f42d5e45643ad47f605a4df3313f3d9228856b
271111eb306401653d910266d8071816da565ab2036d72472719920fa1cfca8c9ca739a0cad8b36a7f6333d5c2ebf705fb4007e9c865584ba687a328b40b5c14
48031809158c1c391b78b315bb7bfa51a61929fc640292f7df27da3001848001bbdea5a4550989c62719920fa1cfca8c9ca739a0cad8b36ad99150e2540afb7a
d1e7e9412a94f9493ae849dd1fc86d078522d70c15897710608e5066341ff6bdf9711863f437b81a0ebc41119a774753be84757630d258d271379ae852926121
ba6db248664c784dc319f305c755bbfe99cf6f808d5eafb6b1b3181b57e6861a12220278753157d4dbada8cfcc20fff29e3c2e01a31804125dc1ec952f72cb54
c99f8f686938f4fbd0c74cef739ec370f00f783d0aa23958957518460293608bc7ce23c501a87fd722ebdabb998488c716d4de926be1d23f7bad1337e2b103a6
48031809158c1c392f7cad50e243a0dc1c9cc8cbdcf96106e1700bfdc95920e04d5b1b73307b13032719920fa1cfca8c9ca739a0cad8b36ad99150e2540afb7a
90f100f4762f2796d059377edaf6dd8749e55ab1837a5230e0f1750e34b70c471f5bfd41e7be4119d904e9835ab17144c8254869505aeefcfe2d497929eb4d29
6c8b77809538ee2d1e4eefec997379d036806a8e381bf9a00f9c9258c40fd866627eb26299bdf8390a5dad4d0e1f8bfdcf95d6d5a77cba8bffbdd235061ffbbe
0276db0c44019a32c303870da281d73be68c3774d4356a267ef4d3ffd06f5c72eeff1de65945ff3ae82edc8269f42d5e45643ad47f605a4df3313f3d9228856b
$CDNENCFINISH
.ENDS ldo_basic

