**********
* Littelfuse, LP
* TVS Diode SPICE Models
* SMAJxxxCA Family
*
* T. Chenoski
* Irving Technical Center
* 
* v1 05/16/08
*
**********
**********
.SUBCKT SMAJ5.0CA    1   2
*       TERMINALS:   T1  T2
Done    1            3   Dtvs
Dtwo    2            3   Dtvs
Rleak   1            2   0.013meg
.MODEL  Dtvs         D   (IS=1.0e-5 RS=0.0391 N=1.5 IBV=10m BV=6.46 CJO=1400p)
.ENDS

.SUBCKT SMAJ6.0CA    1   2
*       TERMINALS:   T1  T2
Done    1            3   Dtvs
Dtwo    2            3   Dtvs
Rleak   1            2   0.015meg
.MODEL  Dtvs         D   (IS=1.0e-5 RS=0.0631 N=1.5 IBV=10m BV=6.74 CJO=1400p)
.ENDS

.SUBCKT SMAJ6.5CA    1   2
*       TERMINALS:   T1  T2
Done    1            3   Dtvs
Dtwo    2            3   Dtvs
Rleak   1            2   0.026meg
.MODEL  Dtvs         D   (IS=1.0e-5 RS=0.0756 N=1.5 IBV=10m BV=7.29 CJO=1400p)
.ENDS

.SUBCKT SMAJ7.0CA    1   2
*       TERMINALS:   T1  T2
Done    1            3   Dtvs
Dtwo    2            3   Dtvs
Rleak   1            2   0.070meg
.MODEL  Dtvs         D   (IS=1.0e-5 RS=0.0853 N=1.5 IBV=10m BV=7.86 CJO=1400p)
.ENDS

.SUBCKT SMAJ7.5CA    1   2
*       TERMINALS:   T1  T2
Done    1            3   Dtvs
Dtwo    2            3   Dtvs
Rleak   1            2   0.150meg
.MODEL  Dtvs         D   (IS=1.0e-5 RS=0.0997 N=1.5 IBV=10m BV=8.41 CJO=1400p)
.ENDS

.SUBCKT SMAJ8.0CA    1   2
*       TERMINALS:   T1  T2
Done    1            3   Dtvs
Dtwo    2            3   Dtvs
Rleak   1            2   0.320meg
.MODEL  Dtvs         D   (IS=1.0e-5 RS=0.1068 N=1.5 IBV=10m BV=8.98 CJO=1400p)
.ENDS

.SUBCKT SMAJ8.5CA    1   2
*       TERMINALS:   T1  T2
Done    1            3   Dtvs
Dtwo    2            3   Dtvs
Rleak   1            2   0.850meg
.MODEL  Dtvs         D   (IS=1.0e-5 RS=0.1186 N=1.5 IBV=10m BV=9.53 CJO=1400p)
.ENDS

.SUBCKT SMAJ9.0CA    1   2
*       TERMINALS:   T1  T2
Done    1            3   Dtvs
Dtwo    2            3   Dtvs
Rleak   1            2   1.800meg
.MODEL  Dtvs         D   (IS=1.0e-5 RS=0.1396 N=1.5 IBV=10m BV=10.10 CJO=1400p)
.ENDS

.SUBCKT SMAJ10CA     1   2
*       TERMINALS:   T1  T2
Done    1            3   Dtvs
Dtwo    2            3   Dtvs
Rleak   1            2   4meg
.MODEL  Dtvs         D   (IS=1.0e-5 RS=0.1677 N=1.5 IBV=10m BV=11.21 CJO=1400p)
.ENDS

.SUBCKT SMAJ11CA     1   2
*       TERMINALS:   T1  T2
Done    1            3   Dtvs
Dtwo    2            3   Dtvs
Rleak   1            2   22meg
.MODEL  Dtvs         D   (IS=1.0e-5 RS=0.1759 N=1.5 IBV=10m BV=12.32 CJO=1400p)
.ENDS

.SUBCKT SMAJ12CA     1   2
*       TERMINALS:   T1  T2
Done    1            3   Dtvs
Dtwo    2            3   Dtvs
Rleak   1            2   24meg
.MODEL  Dtvs         D   (IS=1.0e-5 RS=0.2127 N=1.5 IBV=10m BV=13.43 CJO=1400p)
.ENDS

.SUBCKT SMAJ13CA     1   2
*       TERMINALS:   T1  T2
Done    1            3   Dtvs
Dtwo    2            3   Dtvs
Rleak   1            2   26meg
.MODEL  Dtvs         D   (IS=1.0e-5 RS=0.2465 N=1.5 IBV=10m BV=14.54 CJO=1400p)
.ENDS

.SUBCKT SMAJ14CA     1   2
*       TERMINALS:   T1  T2
Done    1            3   Dtvs
Dtwo    2            3   Dtvs
Rleak   1            2   28meg
.MODEL  Dtvs         D   (IS=1.0e-5 RS=0.2837 N=1.5 IBV=10m BV=15.76 CJO=1400p)
.ENDS

.SUBCKT SMAJ15CA     1   2
*       TERMINALS:   T1  T2
Done    1            3   Dtvs
Dtwo    2            3   Dtvs
Rleak   1            2   30meg
.MODEL  Dtvs         D   (IS=1.0e-5 RS=0.2933 N=1.5 IBV=10m BV=16.87 CJO=1400p)
.ENDS

.SUBCKT SMAJ16CA     1   2
*       TERMINALS:   T1  T2
Done    1            3   Dtvs
Dtwo    2            3   Dtvs
Rleak   1            2   32meg
.MODEL  Dtvs         D   (IS=1.0e-5 RS=0.3325 N=1.5 IBV=10m BV=17.98 CJO=1400p)
.ENDS

.SUBCKT SMAJ17CA     1   2
*       TERMINALS:   T1  T2
Done    1            3   Dtvs
Dtwo    2            3   Dtvs
Rleak   1            2   34meg
.MODEL  Dtvs         D   (IS=1.0e-5 RS=0.0311 N=1.5 IBV=10m BV=19.09 CJO=1400p)
.ENDS

.SUBCKT SMAJ18CA     1   2
*       TERMINALS:   T1  T2
Done    1            3   Dtvs
Dtwo    2            3   Dtvs
Rleak   1            2   36meg
.MODEL  Dtvs         D   (IS=1.0e-5 RS=0.4190 N=1.5 IBV=10m BV=20.20 CJO=1400p)
.ENDS

.SUBCKT SMAJ20CA     1   2
*       TERMINALS:   T1  T2
Done    1            3   Dtvs
Dtwo    2            3   Dtvs
Rleak   1            2   40meg
.MODEL  Dtvs         D   (IS=1.0e-5 RS=0.5171 N=1.5 IBV=10m BV=22.42 CJO=1400p)
.ENDS

.SUBCKT SMAJ22CA     1   2
*       TERMINALS:   T1  T2
Done    1            3   Dtvs
Dtwo    2            3   Dtvs
Rleak   1            2   44meg
.MODEL  Dtvs         D   (IS=1.0e-5 RS=0.6093 N=1.5 IBV=10m BV=24.64 CJO=1400p)
.ENDS

.SUBCKT SMAJ24CA     1   2
*       TERMINALS:   T1  T2
Done    1            3   Dtvs
Dtwo    2            3   Dtvs
Rleak   1            2   48meg
.MODEL  Dtvs         D   (IS=1.0e-5 RS=0.7364 N=1.5 IBV=10m BV=26.97 CJO=1400p)
.ENDS

.SUBCKT SMAJ26CA     1   2
*       TERMINALS:   T1  T2
Done    1            3   Dtvs
Dtwo    2            3   Dtvs
Rleak   1            2   52meg
.MODEL  Dtvs         D   (IS=1.0e-5 RS=0.8637 N=1.5 IBV=10m BV=29.19 CJO=1400p)
.ENDS

.SUBCKT SMAJ28CA     1   2
*       TERMINALS:   T1  T2
Done    1            3   Dtvs
Dtwo    2            3   Dtvs
Rleak   1            2   56meg
.MODEL  Dtvs         D   (IS=1.0e-5 RS=1.0136 N=1.5 IBV=10m BV=31.41 CJO=1400p)
.ENDS

.SUBCKT SMAJ30CA     1   2
*       TERMINALS:   T1  T2
Done    1            3   Dtvs
Dtwo    2            3   Dtvs
Rleak   1            2   60meg
.MODEL  Dtvs         D   (IS=1.0e-5 RS=1.1265 N=1.5 IBV=10m BV=33.63 CJO=1400p)
.ENDS

.SUBCKT SMAJ33CA     1   2
*       TERMINALS:   T1  T2
Done    1            3   Dtvs
Dtwo    2            3   Dtvs
Rleak   1            2   66meg
.MODEL  Dtvs         D   (IS=1.0e-5 RS=1.3687 N=1.5 IBV=10m BV=37.07 CJO=1400p)
.ENDS

.SUBCKT SMAJ36CA     1   2
*       TERMINALS:   T1  T2
Done    1            3   Dtvs
Dtwo    2            3   Dtvs
Rleak   1            2   72meg
.MODEL  Dtvs         D   (IS=1.0e-5 RS=1.6225 N=1.5 IBV=10m BV=40.40 CJO=1400p)
.ENDS

.SUBCKT SMAJ40CA     1   2
*       TERMINALS:   T1  T2
Done    1            3   Dtvs
Dtwo    2            3   Dtvs
Rleak   1            2   80meg
.MODEL  Dtvs         D   (IS=1.0e-5 RS=2.0056 N=1.5 IBV=10m BV=44.84 CJO=1400p)
.ENDS

.SUBCKT SMAJ43CA     1   2
*       TERMINALS:   T1  T2
Done    1            3   Dtvs
Dtwo    4            3   Dtvs
Dthr    4            5   Dtvs
Dfou    2            5   Dtvs
Rleak   1            2   86meg
.MODEL  Dtvs         D   (IS=1.0e-5 RS=1.1509 N=1.5 IBV=10m BV=24.14 CJO=1400p)
.ENDS

.SUBCKT SMAJ45CA     1   2
*       TERMINALS:   T1  T2
Done    1            3   Dtvs
Dtwo    4            3   Dtvs
Dthr    4            5   Dtvs
Dfou    2            5   Dtvs
Rleak   1            2   90meg
.MODEL  Dtvs         D   (IS=1.0e-5 RS=1.2786 N=1.5 IBV=10m BV=25.25 CJO=1400p)
.ENDS

.SUBCKT SMAJ48CA     1   2
*       TERMINALS:   T1  T2
Done    1            3   Dtvs
Dtwo    4            3   Dtvs
Dthr    4            5   Dtvs
Dfou    2            5   Dtvs
Rleak   1            2   96meg
.MODEL  Dtvs         D   (IS=1.0e-5 RS=1.4327 N=1.5 IBV=10m BV=26.92 CJO=1400p)
.ENDS

.SUBCKT SMAJ51CA     1   2
*       TERMINALS:   T1  T2
Done    1            3   Dtvs
Dtwo    4            3   Dtvs
Dthr    4            5   Dtvs
Dfou    2            5   Dtvs
Rleak   1            2   102meg
.MODEL  Dtvs         D   (IS=1.0e-5 RS=1.6235 N=1.5 IBV=10m BV=28.63 CJO=1400p)
.ENDS

.SUBCKT SMAJ54CA     1   2
*       TERMINALS:   T1  T2
Done    1            3   Dtvs
Dtwo    4            3   Dtvs
Dthr    4            5   Dtvs
Dfou    2            5   Dtvs
Rleak   1            2   108meg
.MODEL  Dtvs         D   (IS=1.0e-5 RS=1.8201 N=1.5 IBV=10m BV=30.30 CJO=1400p)
.ENDS

.SUBCKT SMAJ58CA     1   2
*       TERMINALS:   T1  T2
Done    1            3   Dtvs
Dtwo    4            3   Dtvs
Dthr    4            5   Dtvs
Dfou    2            5   Dtvs
Rleak   1            2   116meg
.MODEL  Dtvs         D   (IS=1.0e-5 RS=2.1023 N=1.5 IBV=10m BV=32.52 CJO=1400p)
.ENDS

.SUBCKT SMAJ60CA     1   2
*       TERMINALS:   T1  T2
Done    1            3   Dtvs
Dtwo    4            3   Dtvs
Dthr    4            5   Dtvs
Dfou    2            5   Dtvs
Rleak   1            2   120meg
.MODEL  Dtvs         D   (IS=1.0e-5 RS=2.2671 N=1.5 IBV=10m BV=33.68 CJO=1400p)
.ENDS

.SUBCKT SMAJ64CA     1   2
*       TERMINALS:   T1  T2
Done    1            3   Dtvs
Dtwo    4            3   Dtvs
Dthr    4            5   Dtvs
Dfou    2            5   Dtvs
Rleak   1            2   128meg
.MODEL  Dtvs         D   (IS=1.0e-5 RS=2.5179 N=1.5 IBV=10m BV=35.91 CJO=1400p)
.ENDS

.SUBCKT SMAJ70CA     1   2
*       TERMINALS:   T1  T2
Done    1            3   Dtvs
Dtwo    4            3   Dtvs
Dthr    4            5   Dtvs
Dfou    2            5   Dtvs
Rleak   1            2   140meg
.MODEL  Dtvs         D   (IS=1.0e-5 RS=3.1100 N=1.5 IBV=10m BV=39.29 CJO=1400p)
.ENDS

.SUBCKT SMAJ75CA     1   2
*       TERMINALS:   T1  T2
Done    1            3   Dtvs
Dtwo    4            3   Dtvs
Dthr    4            5   Dtvs
Dfou    2            5   Dtvs
Rleak   1            2   150meg
.MODEL  Dtvs         D   (IS=1.0e-5 RS=3.5333 N=1.5 IBV=10m BV=42.07 CJO=1400p)
.ENDS

.SUBCKT SMAJ78CA     1   2
*       TERMINALS:   T1  T2
Done    1            3   Dtvs
Dtwo    4            3   Dtvs
Dthr    4            5   Dtvs
Dfou    2            5   Dtvs
Rleak   1            2   156meg
.MODEL  Dtvs         D   (IS=1.0e-5 RS=3.8016 N=1.5 IBV=10m BV=43.78 CJO=1400p)
.ENDS

.SUBCKT SMAJ85CA     1   2
*       TERMINALS:   T1  T2
Done    1            3   Dtvs
Dtwo    4            3   Dtvs
Dthr    4            5   Dtvs
Dfou    2            5   Dtvs
Rleak   1            2   170meg
.MODEL  Dtvs         D   (IS=1.0e-5 RS=4.5362 N=1.5 IBV=10m BV=47.67 CJO=1400p)
.ENDS

.SUBCKT SMAJ90CA     1   2
*       TERMINALS:   T1  T2
Done    1            3   Dtvs
Dtwo    4            3   Dtvs
Dthr    4            5   Dtvs
Dfou    2            5   Dtvs
Rleak   1            2   180meg
.MODEL  Dtvs         D   (IS=1.0e-5 RS=5.3148 N=1.5 IBV=10m BV=50.50 CJO=1400p)
.ENDS

.SUBCKT SMAJ100CA    1   2
*       TERMINALS:   T1  T2
Done    1            3   Dtvs
Dtwo    4            3   Dtvs
Dthr    4            5   Dtvs
Dfou    2            5   Dtvs
Rleak   1            2   200meg
.MODEL  Dtvs         D   (IS=1.0e-5 RS=6.3600 N=1.5 IBV=10m BV=56.06 CJO=1400p)
.ENDS

.SUBCKT SMAJ110CA    1   2
*       TERMINALS:   T1  T2
Done    1            3   Dtvs
Dtwo    4            3   Dtvs
Dthr    4            5   Dtvs
Dfou    2            5   Dtvs
Rleak   1            2   220meg
.MODEL  Dtvs         D   (IS=1.0e-5 RS=7.3804 N=1.5 IBV=10m BV=61.61 CJO=1400p)
.ENDS

.SUBCKT SMAJ120CA    1   2
*       TERMINALS:   T1  T2
Done    1            3   Dtvs
Dtwo    4            3   Dtvs
Dthr    4            5   Dtvs
Dfou    2            5   Dtvs
Rleak   1            2   240meg
.MODEL  Dtvs         D   (IS=1.0e-5 RS=8.8214 N=1.5 IBV=10m BV=67.17 CJO=1400p)
.ENDS

.SUBCKT SMAJ130CA    1   2
*       TERMINALS:   T1  T2
Done    1            3   Dtvs
Dtwo    4            3   Dtvs
Dthr    4            5   Dtvs
Dfou    2            5   Dtvs
Rleak   1            2   260meg
.MODEL  Dtvs         D   (IS=1.0e-5 RS=10.5658 N=1.5 IBV=10m BV=72.72 CJO=1400p)
.ENDS

.SUBCKT SMAJ150CA    1   2
*       TERMINALS:   T1  T2
Done    1            3   Dtvs
Dtwo    4            3   Dtvs
Dthr    4            5   Dtvs
Dfou    2            5   Dtvs
Rleak   1            2   300meg
.MODEL  Dtvs         D   (IS=1.0e-5 RS=14.7344 N=1.5 IBV=10m BV=84.34 CJO=1400p)
.ENDS

.SUBCKT SMAJ160CA    1   2
*       TERMINALS:   T1  T2
Done    1            3   Dtvs
Dtwo    4            3   Dtvs
Dthr    4            5   Dtvs
Dfou    2            5   Dtvs
Rleak   1            2   320meg
.MODEL  Dtvs         D   (IS=1.0e-5 RS=16.7500 N=1.5 IBV=10m BV=89.89 CJO=1400p)
.ENDS

.SUBCKT SMAJ170CA    1   2
*       TERMINALS:   T1  T2
Done    1            3   Dtvs
Dtwo    4            3   Dtvs
Dthr    4            5   Dtvs
Dfou    2            5   Dtvs
Rleak   1            2   340meg
.MODEL  Dtvs         D   (IS=1.0e-5 RS=17.7833 N=1.5 IBV=10m BV=95.45 CJO=1400p)
.ENDS

.SUBCKT SMAJ180CA    1   2
*       TERMINALS:   T1  T2
Done    1            3   Dtvs
Dtwo    4            3   Dtvs
Dthr    4            5   Dtvs
Dfou    2            5   Dtvs
Rleak   1            2   360meg
.MODEL  Dtvs         D   (IS=1.0e-5 RS=20.1071 N=1.5 IBV=10m BV=101.51 CJO=1400p)
.ENDS

.SUBCKT SMAJ200CA    1   2
*       TERMINALS:   T1  T2
Done    1            3   Dtvs
Dtwo    4            3   Dtvs
Dthr    4            5   Dtvs
Dfou    2            5   Dtvs
Rleak   1            2   400meg
.MODEL  Dtvs         D   (IS=1.0e-5 RS=25.5833 N=1.5 IBV=10m BV=113.12 CJO=1400p)
.ENDS

.SUBCKT SMAJ220CA    1   2
*       TERMINALS:   T1  T2
Done    1            3   Dtvs
Dtwo    4            3   Dtvs
Dthr    4            5   Dtvs
Dfou    2            5   Dtvs
Rleak   1            2   440meg
.MODEL  Dtvs         D   (IS=1.0e-5 RS=30.7273 N=1.5 IBV=10m BV=124.23 CJO=1400p)
.ENDS

.SUBCKT SMAJ250CA    1   2
*       TERMINALS:   T1  T2
Done    1            3   Dtvs
Dtwo    4            3   Dtvs
Dthr    4            5   Dtvs
Dfou    2            5   Dtvs
Rleak   1            2   500meg
.MODEL  Dtvs         D   (IS=1.0e-5 RS=38.9250 N=1.5 IBV=10m BV=140.90 CJO=1400p)
.ENDS

.SUBCKT SMAJ300CA    1   2
*       TERMINALS:   T1  T2
Done    1            3   Dtvs
Dtwo    4            3   Dtvs
Dthr    4            5   Dtvs
Dfou    2            5   Dtvs
Rleak   1            2   600meg
.MODEL  Dtvs         D   (IS=1.0e-5 RS=58.2500 N=1.5 IBV=10m BV=169.18 CJO=1400p)
.ENDS

.SUBCKT SMAJ350CA    1   2
*       TERMINALS:   T1  T2
Done    1            3   Dtvs
Dtwo    4            3   Dtvs
Dthr    4            5   Dtvs
Dfou    2            5   Dtvs
Rleak   1            2   700meg
.MODEL  Dtvs         D   (IS=1.0e-5 RS=77.5357 N=1.5 IBV=10m BV=197.46 CJO=1400p)
.ENDS

.SUBCKT SMAJ400CA    1   2
*       TERMINALS:   T1  T2
Done    1            3   Dtvs
Dtwo    4            3   Dtvs
Dthr    4            5   Dtvs
Dfou    2            5   Dtvs
Rleak   1            2   800meg
.MODEL  Dtvs         D   (IS=1.0e-5 RS=103.2500 N=1.5 IBV=10m BV=225.74 CJO=1400p)
.ENDS

.SUBCKT SMAJ440CA    1   2
*       TERMINALS:   T1  T2
Done    1            3   Dtvs
Dtwo    4            3   Dtvs
Dthr    4            5   Dtvs
Dfou    2            5   Dtvs
Rleak   1            2   880meg
.MODEL  Dtvs         D   (IS=1.0e-5 RS=113.4583 N=1.5 IBV=10m BV=248.46 CJO=1400p)
.ENDS
