Version 4
SHEET 1 880 680
WIRE 384 -32 256 -32
WIRE 256 0 256 -32
WIRE 384 64 384 48
WIRE 256 96 256 80
WIRE 256 128 256 96
WIRE -208 176 -496 176
WIRE 80 176 -208 176
WIRE 208 176 160 176
WIRE -496 224 -496 176
WIRE 256 240 256 224
WIRE -496 320 -496 304
FLAG 256 240 0
FLAG 384 64 0
FLAG 256 96 OUT
FLAG -208 176 IN
FLAG -496 320 0
SYMBOL res 176 160 R90
WINDOW 0 0 56 VBottom 2
WINDOW 3 34 57 VTop 2
SYMATTR InstName R1
SYMATTR Value 0.84
SYMBOL res 240 -16 R0
SYMATTR InstName R3
SYMATTR Value 7.5
SYMBOL voltage 384 -48 R0
WINDOW 0 35 55 Left 2
WINDOW 123 0 0 Left 0
WINDOW 39 0 0 Left 0
SYMATTR InstName V1
SYMATTR Value 12
SYMBOL voltage -496 208 R0
WINDOW 3 -381 52 Left 2
WINDOW 123 0 0 Left 0
WINDOW 39 0 0 Left 0
SYMATTR Value PULSE(0 5 5m 8n 7n 5m 10m)
SYMATTR InstName V3
SYMBOL ntd5865nl 240 176 R0
WINDOW 0 -54 47 Bottom 2
WINDOW 3 99 13 Top 2
SYMATTR InstName U2
TEXT -600 0 Left 2 !.tran 0 0.1 0 0.1u
