Version 4
SHEET 1 1996 696
WIRE 320 -240 -32 -240
WIRE -32 -160 -32 -240
WIRE 16 -160 -32 -160
WIRE 320 -160 320 -240
WIRE 320 -160 272 -160
WIRE 144 -144 80 -144
WIRE 208 -144 144 -144
WIRE -768 -128 -1136 -128
WIRE -624 -128 -768 -128
WIRE -368 -128 -624 -128
WIRE -144 -128 -368 -128
WIRE 16 -128 -144 -128
WIRE 384 -128 272 -128
WIRE 432 -128 384 -128
WIRE 496 -128 432 -128
WIRE 720 -128 496 -128
WIRE 1008 -128 720 -128
WIRE -368 -112 -368 -128
WIRE 496 -112 496 -128
WIRE 720 -112 720 -128
WIRE 1008 -96 864 -96
WIRE -1136 -80 -1136 -128
WIRE -624 -64 -624 -128
WIRE -368 -16 -368 -48
WIRE 496 -16 496 -48
WIRE 720 -16 720 -48
WIRE 144 16 144 -144
WIRE -624 32 -624 0
WIRE -144 64 -144 -128
WIRE -144 64 -272 64
WIRE -144 80 -144 64
WIRE -16 80 -144 80
WIRE 352 80 288 80
WIRE 384 80 384 -128
WIRE 384 80 352 80
WIRE -272 96 -272 64
WIRE -144 96 -144 80
WIRE 352 96 352 80
WIRE -1136 128 -1136 0
WIRE -16 144 -48 144
WIRE -144 192 -144 176
WIRE -48 192 -48 144
WIRE -48 192 -144 192
WIRE -272 208 -272 176
WIRE -16 208 -272 208
WIRE 352 208 352 176
WIRE 352 208 288 208
WIRE 864 208 864 -96
WIRE 864 208 352 208
WIRE -272 240 -272 208
WIRE -16 272 -128 272
WIRE -272 352 -272 320
WIRE -128 352 -128 272
WIRE -128 352 -272 352
WIRE 144 352 144 320
WIRE -272 384 -272 352
WIRE -272 496 -272 464
FLAG 144 352 0
FLAG -624 32 0
FLAG -368 -16 0
FLAG -272 496 0
FLAG 496 -16 0
FLAG 720 -16 0
FLAG 432 -128 12V
FLAG -768 -128 VBAT
FLAG -1136 128 0
FLAG 1008 -96 fault
FLAG 1008 -128 out
SYMBOL SpecialFunctions\\LTC4367 144 240 R0
SYMATTR InstName U1
SYMBOL cap -384 -112 R0
SYMATTR InstName C1
SYMATTR Value 22µ
SYMATTR SpiceLine V=200
SYMBOL cap 480 -112 R0
SYMATTR InstName C2
SYMATTR Value 2.2µ
SYMBOL cap 704 -112 R0
SYMATTR InstName C3
SYMATTR Value 22µ
SYMATTR SpiceLine V=200
SYMBOL res -160 80 R0
SYMATTR InstName R1
SYMATTR Value 510k
SYMBOL res -288 80 R0
SYMATTR InstName R2
SYMATTR Value 6.34Meg
SYMBOL res -288 224 R0
SYMATTR InstName R3
SYMATTR Value 95.3k
SYMBOL res -288 368 R0
SYMATTR InstName R4
SYMATTR Value 205k
SYMBOL voltage -1136 -96 R0
WINDOW 39 24 119 Left 2
WINDOW 40 24 143 Left 2
SYMATTR SpiceLine +.3 12 +.1 12 +20u 200 +1m 200
SYMATTR SpiceLine2 +20u 12 +.1 12 +20u -24)
SYMATTR Value PWL(0 0 +20u 12 +.1 12 +20u 80
SYMATTR InstName V1
SYMBOL SMAJ58CA -624 -32 R90
WINDOW 0 5 -27 Bottom 2
SYMATTR InstName U13
SYMBOL SQJ974EP 48 -144 R0
SYMATTR InstName U2
SYMBOL SQJ974EP 240 -144 M0
SYMATTR InstName U3
SYMBOL res 336 80 R0
SYMATTR InstName R5
SYMATTR Value 100k
TEXT -1040 -400 Left 2 !.tran .7
