**$ENCRYPTED_LIB
**$INTERFACE
*$
* TPS7B6850-Q1
*****************************************************************************
* (C) Copyright 2016 Texas Instruments Incorporated. All rights reserved.
*****************************************************************************
** This model is designed as an aid for customers of Texas Instruments.
** TI and its licensors and suppliers make no warranties, either expressed
** or implied, with respect to this model, including the warranties of
** merchantability or fitness for a particular purpose. The model is
** provided solely on an "as is" basis. The entire risk as to its quality
** and performance is with the customer.
*****************************************************************************
*
** Released by: WEBENCH Design Center, Texas Instruments Inc.
* Part: TPS7B6850-Q1
* Date: 09DEC2016 
* Model Type: Transient
* Simulator: PSPICE
* Simulator Version: 16.2.0.p001
* EVM Order Number: 
* EVM User's Guide: SLVUAV0-September 2016
* Datasheet: Preliminary September 2016
*
* Model Version: Final 1.00
*
*****************************************************************************
*
* Updates:
*
* Final 1.00
* Release to Web
*
*****************************************************************************
*
* Model Usage Notes:
*
* A. Features have been modelled
*	1. Enable Startup & Shutdown 
*	2. Input Power-up & Power-Down  
*	3. 700mA Peak Current Limit
*	4. Dropout Voltage vs Output Current 
*	5. PSRR vs Frequency 
*	6. Adjustable Power Good Threshold(PG, PGADJ) 
*	7. Adjustable Power Good Delay timer(DELAY) 
*	8. Integrated watchdog(Window & Standard watchdog)
*
* B. Features haven't been modelled
*	1. Supply Current vs Supply Voltage in normal & shutdown mode
*	2. Temperature dependent characteristics
*
*****************************************************************************
.SUBCKT TPS7B6850-Q1_TRANS IN EN WD_ENB WD WTS ROSC DELAY OUT PGADJ WDO PG 
+ FSEL WRS GND_0 GND_1 PAD
$CDNENCSTART
eee8c5c7a2bc4b01f045f303678664e7916da0bae22e8cb0bba041dd67c69ce448ea70148a9ac1670c8926c1ac5057c8ccfcd77bf87ca9dc3110e1fa109f0db4
3b59b36ad64eb5862531ce9df5eb0603b7ab820a8dd76f3093eb294ee21d78e124fdfd9bb2e10b0743b8556c814c35bc66d9a0ded46214268a5d9738360439e2
7aff1ed1750180626f4cbd9a76929f64196099ecf2c65c40b727347f432093669f053643445a83fd4191f4f2906c41908a9202d0bc4d6b24c2e09464c1a42b43
c0ff0c48b49f7f332531ce9df5eb06031c22aa14a4211e7393eb294ee21d78e124fdfd9bb2e10b0743b8556c814c35bc66d9a0ded46214268a5d9738360439e2
04f5acd939422ec02fbfcc2b872ff946e79956b7c1e07960749d13634498f34bc9322890ded6647b27afaa6f44294af8c3b775f7138ddffa193d33a59583ec31
b5f1c17ee7956303a723b80f917a4a24fb6480d0a25923d01393f0affe978c3ecb7899d1db30d83aec7135467ac4ef52ca21a0a6862690b72906c2f2def36096
e83d563d614d5ce96f4cbd9a76929f64eb4bf051b0c131c7e79956b7c1e07960d1e9b26e4eb6d0c1042f0c0c78bb0debcaecd3c89b2f14c5094af2bd2f40cee3
c9df73872fc60450f1dfb21b3a6df9da7333b7b45f3eb820018e217b6aaaacebdc7d419bcbf76965777ff6630fa8739196bd32ad8908fda6c8c9d94215906b5d
b67df0d3ab862a12706b807646b803710e1d0d69cc09017f856993953508ceb5e5836dd6c7bff41830638001e1138905644126c9831a96bd79f8eb8390fef596
a3f11315c1ba40a1706b807646b803710e1d0d69cc09017f856993953508ceb5019b8717068e3d44b0e56ac1a346745afb39caa823c4ddd7c27a0fe47ba19b0a
4651b4c215cbe2b1c23cdff2c91ac4504ab3311203f4c000ef20111d9d9e667e1d20939c154a2ea31f847d076163d15c7c5a23142439b1cd4da8bd8f0dd93865
8767f397bff4c3a731bbfa71d5efb6fe102372497787b35c699c1945c789c761cd8a6fbbc16ec48e55905d96c67387309541d8aecb484d8f9dd40818a72f0ed5
6dcfb6d5e8929f04706b807646b803715848080d04576310aba66fd429c8518a70fab9fd747b5260c6b4e554605b9206696b928ce6283d9cc8c9d94215906b5d
d8b48ee65ee11eb0b7623ed1041da88e577405d6a5dddff84753ae2ccaafc269d31aa839612bf45cd3378fe408b7e7c93d985d8948191437d2c6b5c5299fb21b
c93933505f2bf61715412a0d77178c756bf55428c35ad9f8d72161bf8fe4d83d6e8ab909d0713806408fbe41cc52b425ba83a1240a7131acf67dcbd13c91a702
94dc2427f7cb2ee71e43af0f2a050358bdbe85bfe591b1eaaf4dcb6c804f4d7bc0dbaeecfed866ece9dadcd7726846d443b8556c814c35bc2b6b19e487b52974
a6e6cbd161b941d8706b807646b803710e1d0d69cc09017f1db1812106980ddb56bfede5d11cc7ca4ab3311203f4c000ef20111d9d9e667ef1cdc3a9af645f7a
a5d158a0fc11634f706b807646b80371fa57e2770da49ac5ab7bc2afadfaa8e6f649e73d75691dabcaecd3c89b2f14c57cb6553a680f8c9cee8d2a710bc67cba
22cc75479b3d980a706b807646b80371db8e6cfdc73782307231a9f19fe204d37288d1c97fd72d607928f9ad440cae309f053643445a83fd08012e615b4152c8
6400e88c0aa4cd28706b807646b80371fa57e2770da49ac5ab7bc2afadfaa8e640dc870c408f2c859f053643445a83fd4191f4f2906c4190540bff2debb453c2
54653036f112a7e5706b807646b80371fa57e2770da49ac5b1c2283e122a8f57fe525b8ec7602eb398d3ebd5efb18331042f0c0c78bb0deb600fb946071ff50f
1e36f10390632b7b706b807646b8037145e45a237ff1ad29824121975e56de1f10718eef77dd25bb845fd32933e2f4c50337ffefc92651c1d63a56bfb0f973cc
00d3e0b087c737444ab3311203f4c000ef20111d9d9e667e1d20939c154a2ea31f847d076163d15c7c5a23142439b1cd681554ef5c4bdd2914cdf018c431ea38
69ff18044fae7c89706b807646b80371392678c7f2bba3043e832be6ab86182a108e528828f8c670309d519d4682e79898129243d71d5b4382d093cc68aa8602
8df0563ff6b12bcb706b807646b803719e2bd1ba75070b14ec969f817e6de3bde68e8fe71b17ece3caecd3c89b2f14c57cb6553a680f8c9cee8d2a710bc67cba
5ce015494c01cf89706b807646b80371629b419ea2176fe16ecb452e5a26e5476773ab7586c924ae052ba79a9564dfe6019b8717068e3d446653698ee93a71da
fa68f365a2a9a9bbf60ecfe3dff4fab243b8556c814c35bc66d9a0ded462142610068f1e11d1b45eff4c6ac6d233f1b0c24d5b599a40b25429f82ce65935f4c1
cdaa385411811e27bfd81d659a09e4b32637e9cac2aa5cea2cecad1ebf804c4bf467148f06ca8e43a723b80f917a4a24fb6480d0a25923d0e952a8e180ad888f
446d4a54ef6f7554706b807646b8037140bd4c55c84bbfa48a6e3cf36ec9f7e09f053643445a83fd4191f4f2906c41908a9202d0bc4d6b24c2e09464c1a42b43
a78fdcc1e2fc2ea7706b807646b803716773ab7586c924aeb8c3bb252d743a61a9a4286d7fda3db54ab3311203f4c000ef20111d9d9e667ef1cdc3a9af645f7a
e9f419af62bfe95ebc27f931268b4061080dbdc2111b05ac56d3dadda3d48534ce5ec34e6f8ad1cac13ffc8b6ae5cb2e539f5ef2ce7b6a1ed37c3a87a18682ce
5d078000650a8fa591703117bdc91c6edf19ca55af2f5d1058d5dd88a7a18d446bf55428c35ad9f8d72161bf8fe4d83d6e8ab909d07138066da9c645acab0ca5
6dcc2999c2dfe559706b807646b803716773ab7586c924aed75ce5b7c683e8762fe119e52b9fd04e4ab3311203f4c000ef20111d9d9e667ef1cdc3a9af645f7a
e9f419af62bfe95ecc0121b5e20e2076080dbdc2111b05acb9cf6b425b446518ce5ec34e6f8ad1cac1550d7a244ac219645466c8b81db4507e48cad2d55137e0
62b6ab8d77656876caecd3c89b2f14c57cb6553a680f8c9c1afa551d39789a1271fcc3e79d87dd3457c997812a09f631a006b0d984c26155afcfcc4587a1eac8
57bfa5e2293be33779ec3e5122019c96c8cfa3509401b43d972aa8a1f218a8f5b5f1c17ee7956303a723b80f917a4a24fb6480d0a25923d0e952a8e180ad888f
d29a3819b03a632a706b807646b80371e4fb3705f1b51aa995ffcccda0dce4f14577d1e25bdc4e8b7ad9062954c852d2d3a3786b18ad80ab5b0f81211b67e8f3
88b96b7c831faa4a41097083f6b3a209caecd3c89b2f14c57cb6553a680f8c9c1afa551d39789a1271fcc3e79d87dd3457c997812a09f6310c9b0a745347205a
bbf0a766f49a242c2637e9cac2aa5cea2cecad1ebf804c4bf467148f06ca8e43a723b80f917a4a24fb6480d0a25923d01393f0affe978c3e51e0878a2d3aea1d
e9f419af62bfe95ebf230db17611f82f30759f496eef2dfd749d13634498f34b5d244e00d04dc46299ed359edea84c1b78102afab19889d53b300708695416e3
48cb24555e462f29706b807646b8037113ed42b69ad54d288a6e3cf36ec9f7e09f053643445a83fd4191f4f2906c41908a9202d0bc4d6b24c2e09464c1a42b43
a3ce589fda26bc39706b807646b80371fa57e2770da49ac53d1096246708ce2ea28da306a252251ea147194f3a3bf6c0710f626c2faf14a63110e1fa109f0db4
10f459d39ee6f8ae706b807646b803710e1d0d69cc09017fc15c8aa4e039c9b28ba8652ec2ec62005cb3f6332af4534943b8556c814c35bc2b6b19e487b52974
e9f419af62bfe95ec12e63f53fc8b6c7080dbdc2111b05ac0a146ad532739887ce5ec34e6f8ad1ca90fab243a6c256dc26e2d79163fa0b7e76f140577a10391f
3515be28981a96342565d3b428f61af7f6c57157062f5a99309d519d4682e79898129243d71d5b430f16ae580cf4dbf06e170b95dad1821800ba16b3390c062d
e2a940f3b8cefa37699c1945c789c761cd8a6fbbc16ec48e55905d96c67387309541d8aecb484d8f86b851b9f102be035354976ab24cd9723598e005f1506c39
0be1bd08545f4ec3706b807646b80371c1cfb8ce8fa30d438eb411338d55bfa2bf1ee911780421dda723b80f917a4a24fb6480d0a25923d0e952a8e180ad888f
2f2a87e1c731ebbaaf98625ff36f29db080dbdc2111b05acef0203af3dea94b42dad52efa64df64c699c1945c789c761cd8a6fbbc16ec48eeabea34b5df4a910
f28257b2a3730294706b807646b803710e1d0d69cc09017f856993953508ceb5811db2ba611bc89dd80e544bf03035b26bf55428c35ad9f8a7f92d263dc80ee5
6bd9931e299a691a706b807646b803711639f0160e9f6388e560c959dcca8cd62910ae696603f81e5cb3f6332af4534943b8556c814c35bc2b6b19e487b52974
a16523cb4c600880cfa2b28727d5c31d934257589bff04f06bf55428c35ad9f8d72161bf8fe4d83d6e8ab909d0713806408fbe41cc52b42548c4e0101417c49d
717cdf892ff6b6ffdaf99020d108932bdee7946bb0d97194bf1ee911780421dda723b80f917a4a24fb6480d0a25923d01393f0affe978c3e51e0878a2d3aea1d
615a28c46d72374094fbbbfac28a5c5c164c9e232793a5b0e99f6ae89c8b7ae39f053643445a83fd4191f4f2906c41908a9202d0bc4d6b24c2e09464c1a42b43
3d438685e8d81df08453ea6f6fb514da8bf1fb8e76e180dcaf50bb70a01082dbee991daf9af4dc1fff68ca0f0ca3c939a8c91e20f198ecd4fde42df842e9e89c
705d459f50f7a08cdaf99020d108932b0d73b5f200213c020b40ce9c4b6ca4626bf55428c35ad9f8d72161bf8fe4d83d6e8ab909d07138066da9c645acab0ca5
b0eb42ca922cce592fbfcc2b872ff946a0bb8dc6bccd13fa749d13634498f34b68c3b9926e0df71c616ab2d91dc2c95df4d4ca0f4cb1c5e079a085cec0b7c55b
9b17b472ccd6ffe7af399d32d282acb6caecd3c89b2f14c57cb6553a680f8c9c1afa551d39789a1271fcc3e79d87dd3457c997812a09f6310c9b0a745347205a
76c8b296ab7781db706b807646b803717b89e6f27d8f732c183bc516b8203d5162d766f77596a54b699c1945c789c761cd8a6fbbc16ec48eeabea34b5df4a910
3d06920676f186c8c12e63f53fc8b6c7c158c9cf5ea8082f1290c23a0b0f3e322457b759a361baeacd31f8ff509d196b589af0812576e61b450139be464a895d
b032015482838020d2208d979160a9029f053643445a83fd4191f4f2906c41908a9202d0bc4d6b2456d659c7b7261cedcbabde83c77bef6c4d7e994038c1ee90
8767f397bff4c3a731bbfa71d5efb6fe102372497787b35c699c1945c789c761cd8a6fbbc16ec48e55905d96c67387309541d8aecb484d8f9dd40818a72f0ed5
0b599ee0210d5230706b807646b8037186a94ce5d7cafcf3d52d6ecfb9494b2f784ef6a20b576f19caecd3c89b2f14c57cb6553a680f8c9cee8d2a710bc67cba
8ebbfc44b364179cf60dadfdf2d219ce66d19e6213ce3011ba1028bfd4fa95cd8c7af8e2c5f58c7b97d9354a0c7bbb63276119ffa517706bfd320aca1c034ae2
0644b022ac0a72dc6bf55428c35ad9f8d72161bf8fe4d83d6e8ab909d0713806408fbe41cc52b425ba83a1240a7131ace164fdbbc5d446a9d79858d8fbd616eb
f6537d8297ec391c706b807646b803711f930dae2376378aabedc6d24b6e2c049f34460e62f63dfd4ab3311203f4c000ef20111d9d9e667ef1cdc3a9af645f7a
e59633e0a3665563706b807646b803716c0447002f8fc68a59f0d08728a74ba53495308f5c857e1b35c792664f9c8dc6d2bbd7e847d638e106ca5c9d845745cf
a5257eba54077ab5021166ac3753b7b86bf55428c35ad9f8d72161bf8fe4d83d6e8ab909d0713806408fbe41cc52b425ba83a1240a7131acf67dcbd13c91a702
4b6085f2012636678ee5eab1ce21437b869475fcdae8706e6bf55428c35ad9f8d72161bf8fe4d83d6e8ab909d0713806408fbe41cc52b42548c4e0101417c49d
7bf0c7abe91b091dc743034222a6817af72be920324f9af3707e12343bd0b7a79c87d46158ce0e2c7a93df5c792af9bd31870703c67c119eba3ed7d57773e6c0
a99c65c369b81b276eb23377bfa163b16be9891bb38dcbf917bc15d60993708b6bf55428c35ad9f8d72161bf8fe4d83d6e8ab909d07138066da9c645acab0ca5
3e1e14a42df23320282c5c516cd64a8c3ee509d6b9217a12218b76733779a25705425b5d0f1c0581caecd3c89b2f14c57cb6553a680f8c9cee8d2a710bc67cba
427cb1a2b5757ac7a0e938c77ef859153ee509d6b9217a12218b76733779a2572da085ac1302fd51478a87bc5b8e6cf96bf55428c35ad9f8a7f92d263dc80ee5
52c7df36ffadfc26789bb85ef7fe9f23b751518eb584ecb1f21ad32d81f51fce5aded6bbd8d80d386b574213c15e8d89446b911b2fbfdad2d4d82bc3b0a0aa20
78382380c377b03e4d16f1b22d310591c3f375bcb561ec6a645a31395bfef9ac266646e1b8657f49bf55fcd58b28588e90149cae9bdf352f49bf6dca2ecdfd7c
8788f6c4a092f27ec44335446a5170ea9f053643445a83fd4191f4f2906c41908a9202d0bc4d6b2456d659c7b7261cedcbabde83c77bef6c4d7e994038c1ee90
54025f075f0816736c592e87a1e1d16e5084244f0acfd28f6bf55428c35ad9f8d72161bf8fe4d83d6e8ab909d0713806408fbe41cc52b42548c4e0101417c49d
427cb1a2b5757ac7f6f36ac00c522ffe3ee509d6b9217a12bdf4fc12777d6feaba105b629766a2e000d3e0b087c737444ab3311203f4c0000aea9b76cbd3ba4b
52c7df36ffadfc26c38aa6dac936016ab751518eb584ecb1f21ad32d81f51fcee7e6dbca1462438f6b574213c15e8d89364c3e4eb4295ab327058e674aea7f55
e1cec66f6eb6c041aa33655883cb978b699c1945c789c761cd8a6fbbc16ec48e55905d96c67387309541d8aecb484d8f86b851b9f102be03692126be61580c59
3e1e14a42df23320f6ac43e363a110953ee509d6b9217a12bda84b03d32aa37e3c04456a603265bcadbef4861f68f53650932f91c29cb99babb485c8ac7a39ac
52c7df36ffadfc265f51ba6f8e7829dcb751518eb584ecb12cf6fd5f83d8596f5e50098706b0a1f4d3b99b01fef3c644889badc9901ee718e3c6940948f28a22
c3b775f7138ddffae9fdfc8a753de1116bf55428c35ad9f8d72161bf8fe4d83d6e8ab909d0713806408fbe41cc52b425ba83a1240a7131acf67dcbd13c91a702
3e1e14a42df23320c36f86d7f8415e31a155cb36acb1cceef5bc6c1ad8e92a1ccaecd3c89b2f14c57cb6553a680f8c9c1afa551d39789a121a1e51242d5ea707
52c7df36ffadfc261f625d87cb26a35bb751518eb584ecb1986c00c58ca087f65e50098706b0a1f4d3b99b01fef3c644889badc9901ee718e3c6940948f28a22
662946f613ecb1fd438d9ebff68fa7966bf55428c35ad9f8d72161bf8fe4d83d6e8ab909d0713806408fbe41cc52b425ba83a1240a7131acf67dcbd13c91a702
3e1e14a42df233208548215614db6af33ee509d6b9217a12bda84b03d32aa37e0c73e639b4442761936bcd86af45996e50932f91c29cb99babb485c8ac7a39ac
3e1e14a42df233202fe921c25199d9b2f60dadfdf2d219ce36fd49b8299ef0b811301e51f76f0c4c6bf55428c35ad9f8d72161bf8fe4d83d66a19753efb28072
52c7df36ffadfc26169bee98f775f052b751518eb584ecb1f21ad32d81f51fce2860b5481b6c1a3d6b574213c15e8d89a8cc313387bda35c89c61be5aaa592aa
78382380c377b03e4d16f1b22d310591c3f375bcb561ec6a645a31395bfef9ac266646e1b8657f49efb755727671ebdbd26b9eb989a47743149dbb9fbe9f1ce9
b5848999c4a82f086bf55428c35ad9f8d72161bf8fe4d83d6e8ab909d0713806408fbe41cc52b425ba83a1240a7131ace164fdbbc5d446a9d79858d8fbd616eb
54025f075f081673ed699a0d743cfc835084244f0acfd28f6bf55428c35ad9f8d72161bf8fe4d83d6e8ab909d0713806408fbe41cc52b42548c4e0101417c49d
3e1e14a42df23320bc5fad610ce9a63c3ee509d6b9217a12bdf4fc12777d6fea05425b5d0f1c0581caecd3c89b2f14c57cb6553a680f8c9cee8d2a710bc67cba
59cb8d86d3352e1ab585b96681e0ca9b71e5483fbd3e1fa786a94ce5d7cafcf3fdab5c3a62a85761e75a3cb3257ba376de43a3c37c756af8ea5da16b35ac52f1
13863f5d3350d8b40f090d5b57717962309d519d4682e79898129243d71d5b430f16ae580cf4dbf06e170b95dad1821878c29be6d6ab997304bddf2ddc53d9eb
926f439d00b10bcc706b807646b80371187f733a1688fffccfc0db855f9e1f1a9e291a92f206a1238ab273c7c9e89f2e1efa4d69287b8e8ac27a0fe47ba19b0a
4651b4c215cbe2b1c23cdff2c91ac4504ab3311203f4c000ef20111d9d9e667e1d20939c154a2ea31f847d076163d15c7c5a23142439b1cd4da8bd8f0dd93865
8767f397bff4c3a731bbfa71d5efb6fe102372497787b35c699c1945c789c761cd8a6fbbc16ec48e55905d96c67387309541d8aecb484d8f9dd40818a72f0ed5
59cb8d86d3352e1af6a2b547dc976ba0b235e53d78bbb7e7f59fb3b45f6b98a0191cc6f7210186dde873fb219d709524d8f74630444634a674f35d5ef50eb67f
bff077c5371b976a5caf12c866d55f950f090d5b57717962309d519d4682e79898129243d71d5b430f16ae580cf4dbf06e170b95dad1821800ba16b3390c062d
15250e5b2da05f11706b807646b8037186a94ce5d7cafcf37bfa2cb09f62e84c37c56baab5e6538a36e06b631f1295bb7bb04849f45a3672450139be464a895d
b032015482838020d2208d979160a9029f053643445a83fd4191f4f2906c41908a9202d0bc4d6b2456d659c7b7261cedcbabde83c77bef6c4d7e994038c1ee90
8767f397bff4c3a731bbfa71d5efb6fe825b843a3aa9ddcd4ab3311203f4c000ef20111d9d9e667e1d20939c154a2ea31f847d076163d15ca2e09559896b5d9b
73ea80eaf046b4ee706b807646b80371054631b0b98900714dd15810531ccdc1e8bf08d00d73e754e68391c4b4f53f2dd2bbd7e847d638e106ca5c9d845745cf
a5257eba54077ab5021166ac3753b7b86bf55428c35ad9f8d72161bf8fe4d83d6e8ab909d0713806408fbe41cc52b425ba83a1240a7131acf67dcbd13c91a702
4b6085f2012636675a0aa31c52cddba976617f42cd5d956b309d519d4682e79898129243d71d5b430f16ae580cf4dbf06e170b95dad1821800ba16b3390c062d
2591cd74724ad29ccc2f6108b176abe4aac5f22b563d5659ca12e6a0fe3bd82b877b35b4e1eba85cc5782823534b29b88d906baffccbe25a0a08c86cebf37f23
d1e514cf9ee05ca543b8556c814c35bc66d9a0ded462142610068f1e11d1b45eff4c6ac6d233f1b0c24d5b599a40b254ae0c0d5cb5b1e4f5b3d3cd842ade8951
4e70cfbeb528d94f79ce5c5f30adcd91af0e804c85ed0320d88818cf2c040cb8da85a872f1e7837c509fdf59d680a9032457b759a361baea15498280a022d4f3
8dcea2cdd2d3d5cc9783ae8e4821c68fbaa78b47fb353ab3309d519d4682e79898129243d71d5b430f16ae580cf4dbf06e170b95dad1821800ba16b3390c062d
bbf0a766f49a242c2637e9cac2aa5ceafd49a287c76beca9cf3db11be0503885caecd3c89b2f14c57cb6553a680f8c9c1afa551d39789a121a1e51242d5ea707
b3c42c8a29dd5176821859b1bda1f2aef60dadfdf2d219ce2bc86df0bb45fc198492e52ca99071377fb473168bd2f83bb6d9fa065f2e404d57f6d44175143e13
3de1a53dacda96b6706b807646b8037189a8b31c86100065c9c58f0746b43905193c18c3db65b4203b5cfb7e170ff9331efa4d69287b8e8ac27a0fe47ba19b0a
4651b4c215cbe2b1c23cdff2c91ac4504ab3311203f4c000ef20111d9d9e667e1d20939c154a2ea31f847d076163d15c7c5a23142439b1cd4da8bd8f0dd93865
8767f397bff4c3a731bbfa71d5efb6fe102372497787b35c699c1945c789c761cd8a6fbbc16ec48e55905d96c67387309541d8aecb484d8f9dd40818a72f0ed5
088d43e13592fa9b239bdbe658d21d00b235e53d78bbb7e72bbd9fbe1231dadcb6d9fa065f2e404d981d0945e46fa3a24bf21d1d5953952d76f8627933fbf688
db46dde49b26eea3caecd3c89b2f14c57cb6553a680f8c9c1afa551d39789a1271fcc3e79d87dd3457c997812a09f631a006b0d984c26155afcfcc4587a1eac8
081e84107dfbac3afb10ff64cffca9e92c923fec71cf1ac71933952b4dcad44ca68ba69006c80e09f1b6bc29d103b9156d913effe3ea91171c022559c34d47a8
088d43e13592fa9bcd9f9b0fe66d8ad1b235e53d78bbb7e73434134e20f7aca8191cc6f7210186dd8b8c3c8992d2a1fac8f9220c3a6e151addc1821913f39925
790d1d6de01f762243b8556c814c35bc66d9a0ded462142610068f1e11d1b45eff4c6ac6d233f1b0c24d5b599a40b254ae0c0d5cb5b1e4f5b3d3cd842ade8951
081e84107dfbac3afb10ff64cffca9e92c923fec71cf1ac71933952b4dcad44ca68ba69006c80e09f1b6bc29d103b9156d913effe3ea91171c022559c34d47a8
01bbba4488482a77239bdbe658d21d009dd06b9f071f064a6342ce344f4132ecfaca85d0862a74fb081af7b1039c778c2409489d56c2f0a03f45df58dc5986aa
438d9ebff68fa7966bf55428c35ad9f8d72161bf8fe4d83d6e8ab909d0713806408fbe41cc52b425ba83a1240a7131ace164fdbbc5d446a9d79858d8fbd616eb
3d06920676f186c8eb87848776396383c158c9cf5ea8082fd974fc470ea231e5a5b3eeba700f48fb68aabd8a54414195b58626e19d95465c7ec09cef15c57fb0
1933952b4dcad44c74c7e4af17ab9cebcaecd3c89b2f14c57cb6553a680f8c9c1afa551d39789a1271fcc3e79d87dd3457c997812a09f6310c9b0a745347205a
8767f397bff4c3a731bbfa71d5efb6fe3ab97347ad0a000b0e36c45354985ce0caecd3c89b2f14c57cb6553a680f8c9c1afa551d39789a121a1e51242d5ea707
113762bf3365157b706b807646b803715752f2c5e53209f2b116adbde70923b8aea21e60f17f03693a6004d5fb9c5869b60305a69571cbc06c22f8338c178f33
9783ae8e4821c68fa223a4da0518f3d6699c1945c789c761cd8a6fbbc16ec48e55905d96c67387309541d8aecb484d8f86b851b9f102be03692126be61580c59
8767f397bff4c3a731bbfa71d5efb6fe825b843a3aa9ddcd4ab3311203f4c000ef20111d9d9e667e1d20939c154a2ea31f847d076163d15ca2e09559896b5d9b
de293b3f4fabecfa706b807646b803718ac9ab267b811ef70627d2d30e6a5d2f2fbbd979b0dc4c825a89b52747390c730c0ba5d512d8d9b7d2c0ea702584563a
e776e9b255bda08cbfd81d659a09e4b36bf55428c35ad9f8d72161bf8fe4d83d6e8ab909d0713806408fbe41cc52b425ba83a1240a7131acf67dcbd13c91a702
8767f397bff4c3a731bbfa71d5efb6fe102372497787b35c699c1945c789c761cd8a6fbbc16ec48e55905d96c67387309541d8aecb484d8f9dd40818a72f0ed5
01bbba4488482a77eb87848776396383c158c9cf5ea8082f6342ce344f4132ecfaca85d0862a74fb081af7b1039c778c2409489d56c2f0a0973504d8c83d55ba
8d8aaeae5fcf78c2af399d32d282acb6caecd3c89b2f14c57cb6553a680f8c9c1afa551d39789a1271fcc3e79d87dd3457c997812a09f6310c9b0a745347205a
59cb8d86d3352e1abf230db17611f82fb235e53d78bbb7e7778c94c1c1afe582191cc6f7210186dd42d694a0c20fdd67e84f831420efc7cf74f35d5ef50eb67f
bff077c5371b976ab163c012dcd534926bf55428c35ad9f8d72161bf8fe4d83d6e8ab909d0713806408fbe41cc52b425ba83a1240a7131acf67dcbd13c91a702
36bdebee2a5adcbd706b807646b8037186a94ce5d7cafcf31419977793854a8fe1f259d078df733dcaecd3c89b2f14c57cb6553a680f8c9cee8d2a710bc67cba
a4cbeddfcf2a513f706b807646b803718ac9ab267b811ef73cc666026d5a428e2a6c325b600583e918b880f25f0966879ebff7dfd106ceeb1c43c8f33649b663
bc8010599de6f88bf60ecfe3dff4fab243b8556c814c35bc66d9a0ded462142610068f1e11d1b45eff4c6ac6d233f1b0c24d5b599a40b25429f82ce65935f4c1
cdaa385411811e27bfd81d659a09e4b32637e9cac2aa5cea2cecad1ebf804c4bf467148f06ca8e43a723b80f917a4a24fb6480d0a25923d0e952a8e180ad888f
d3666b70f8458c91706b807646b80371dd4ba0f05a737c2d37003db0ddb454cecaecd3c89b2f14c57cb6553a680f8c9c1afa551d39789a121a1e51242d5ea707
3d06920676f186c8239bdbe658d21d00260423a72e93225aac665e22fc9af53e5525b978685b049c4d3011d947d3508950265f1ecfbaf5d017e4e6c5d3ddfaae
1933952b4dcad44cb6ee1f2c95952c48caecd3c89b2f14c57cb6553a680f8c9c1afa551d39789a1271fcc3e79d87dd3457c997812a09f6310c9b0a745347205a
3e98407318bd7ce6706b807646b80371f1f7249991b285bdd028ba153508e78ea34a466d50782bc38ac9ab267b811ef78dc01e28ccf24a5b83a43670874a565a
88b96b7c831faa4a41097083f6b3a209caecd3c89b2f14c57cb6553a680f8c9c1afa551d39789a1271fcc3e79d87dd3457c997812a09f6310c9b0a745347205a
bbf0a766f49a242c2637e9cac2aa5ceafd49a287c76beca9cf3db11be0503885caecd3c89b2f14c57cb6553a680f8c9c1afa551d39789a121a1e51242d5ea707
01bbba4488482a77bc27f931268b4061b235e53d78bbb7e736e2e10d2b5a85f3ce5ec34e6f8ad1ca9d9e6611363c525cb481be4636ebe3ff213b98d888a071c6
9b08e82f0908ea3acaecd3c89b2f14c57cb6553a680f8c9c1afa551d39789a1271fcc3e79d87dd3457c997812a09f631a006b0d984c26155afcfcc4587a1eac8
54025f075f0816731efe1941efff01476d35d8485846d6999f053643445a83fd4191f4f2906c41908a9202d0bc4d6b2456d659c7b7261ced6f53ba1590950413
a15cf2fb7e4f9ce8706b807646b80371d9aab33bb44753831753946031f5de53cf457ac1fa2f407737003db0ddb454cecaecd3c89b2f14c5094af2bd2f40cee3
1aad88c4f41a62e8706b807646b803718ac9ab267b811ef74ae7786baf9cf1df03dc106fabbcecaba723b80f917a4a24fb6480d0a25923d0e952a8e180ad888f
11e1f68fc1a2d87f706b807646b8037186a94ce5d7cafcf35540ad8c4c8719c9cefbaf22618aaf31caecd3c89b2f14c57cb6553a680f8c9cee8d2a710bc67cba
5117cf487832d721f60dadfdf2d219cec9b8aa8e4a0c387f1f930dae2376378a5bc94d77c2abb5688c7af8e2c5f58c7bec566daccd501cec954eb04dbb562f4c
2110a5499bb8baf11d7835969a2ccc1039859341766fc92c309d519d4682e79898129243d71d5b430f16ae580cf4dbf06e170b95dad1821800ba16b3390c062d
e8ac5e09ea758be743b8556c814c35bc66d9a0ded462142610068f1e11d1b45eff4c6ac6d233f1b0c24d5b599a40b254ae0c0d5cb5b1e4f5b3d3cd842ade8951
8777386ac216c2eedf391804a3448980af0e804c85ed0320b6d9fa065f2e404ddabd167ce84517f4f8777474bac8064b9e8296c5a0902b026fa40eed901b1a96
4c0d3ca20151009d43b8556c814c35bc66d9a0ded462142610068f1e11d1b45eff4c6ac6d233f1b0c24d5b599a40b254ae0c0d5cb5b1e4f5b3d3cd842ade8951
081e84107dfbac3afb10ff64cffca9e92c923fec71cf1ac71933952b4dcad44ca68ba69006c80e09f1b6bc29d103b9156d913effe3ea91171c022559c34d47a8
3d06920676f186c8cc0121b5e20e2076f4d85fb60c6200888ac9ab267b811ef733eea73e93ca330f97d0bdc16e1372b18dcea2cdd2d3d5ccd573267e41263c5c
dd06c2baef735cae2b1410deca799d73699c1945c789c761cd8a6fbbc16ec48e55905d96c67387309541d8aecb484d8f86b851b9f102be03692126be61580c59
4b6085f2012636678ee5eab1ce21437bd95e0d6418284b60699c1945c789c761cd8a6fbbc16ec48e55905d96c67387309541d8aecb484d8f9dd40818a72f0ed5
91e3a93b85eddc8a873437bd674299b0d6a965fe95110de463e2857609a19d5bbd4668bf6cf3e363dec0af273d20c656aa9ce25f64e26db25edb25dd1a705745
4e992aeed9e80f80caecd3c89b2f14c57cb6553a680f8c9c1afa551d39789a1271fcc3e79d87dd3457c997812a09f631a006b0d984c26155afcfcc4587a1eac8
f7659710cf770f61cc2f6108b176abe4f7ee5129649aa51a9119c10d00a5d7ba8d906baffccbe25a8cf78db0e0e54622644126c9831a96bd79f8eb8390fef596
d9e3222030dfd73a706b807646b80371954f8d992264643394f031a66aa58e5779455fb43fdbe03f027580d1b3676c3a3475ffe290ef1fbde4e72beed32b1f99
5911b2e9db27761795d7fcca0b5012cc4ab3311203f4c000ef20111d9d9e667e1d20939c154a2ea31f847d076163d15c7c5a23142439b1cd4da8bd8f0dd93865
bbf0a766f49a242c2637e9cac2aa5ceafd49a287c76beca9cf3db11be0503885caecd3c89b2f14c57cb6553a680f8c9c1afa551d39789a121a1e51242d5ea707
99ff8c1bb4cc1521706b807646b803715752f2c5e53209f2d1cbe5721d489a5d3b79d1cd0e073c3243b8556c814c35bc66d9a0ded46214268a5d9738360439e2
45a9fccf4afba39d6bb02f7c3ba3e30e50730180d5b2036a03fd3b90d4c18905727a1739f5646465699c1945c789c761cd8a6fbbc16ec48eeabea34b5df4a910
fdf8284e5a936b75380fb10adf14cc5b50730180d5b2036a03fd3b90d4c18905eac68e8f5143edc9f357d2495314aea2710f626c2faf14a63110e1fa109f0db4
c6b67ff585b7e272740fed5988fffcd15f226c76faea925bcc276dd8ca4f1e5e18274569b5d9c9b8ce5ec34e6f8ad1cad43c9faea834c87cd509a3a7d4066ab5
78382380c377b03e4d16f1b22d310591c3f375bcb561ec6a645a31395bfef9ac266646e1b8657f49487d94a39b17a3bd22cc8e6d5807da503afa7e6faec3708f
336828af2ec18c84ab45698bbfd8cd346bf55428c35ad9f8d72161bf8fe4d83d6e8ab909d0713806408fbe41cc52b425ba83a1240a7131acf67dcbd13c91a702
54025f075f081673eb2869e4ae2939dccb9fc4f74941be17e71f71e187584171309d519d4682e79898129243d71d5b430f16ae580cf4dbf0d83872dab4439564
fdf8284e5a936b7535e117d00117a6a650730180d5b2036a2b059ba8e35d21e96e2ed6f7f84b98c823b782b3d6a37df19f053643445a83fd08012e615b4152c8
c6b67ff585b7e272c03cded8026310065f226c76faea925bcc276dd8ca4f1e5ea8cc83b5df0ea5fbce5ec34e6f8ad1ca6219a576bbdc3485dd0d9bf5740fcbde
904bee84e906dea73e78b1a0cca82604699c1945c789c761cd8a6fbbc16ec48e55905d96c67387309541d8aecb484d8f86b851b9f102be03692126be61580c59
d47c3056d476cbf0b5f1c17ee7956303a723b80f917a4a24fb6480d0a25923d01393f0affe978c3ecb7899d1db30d83aec7135467ac4ef5246bf5ffc66bf57bf
45a9fccf4afba39d380a62503fc598b150730180d5b2036aef39d51b75adc7b9b6c3a19d86024f1b9d36b737bc46e4add1e9b26e4eb6d0c18671325e6f4b6b25
c6b67ff585b7e2728cb963781b9734045f226c76faea925b237b393cb649f93c749d13634498f34bc9322890ded6647b7f1f91912ae27febe3c6940948f28a22
c3b775f7138ddffae9fdfc8a753de1116bf55428c35ad9f8d72161bf8fe4d83d6e8ab909d0713806408fbe41cc52b425ba83a1240a7131acf67dcbd13c91a702
45a9fccf4afba39d46b287ff22cd9bb69f9754c4f2799f958a6e3cf36ec9f7e09f053643445a83fd4191f4f2906c41908a9202d0bc4d6b24c2e09464c1a42b43
c6b67ff585b7e272605ddb46945b74e45f226c76faea925bba28218b1dc0da8e4e78970fb317db48faca85d0862a74fb7cbecefa3f1341ccd06efc0e6b3e65c6
0067757ef9ccb77fee1deb4790f82ff06bf55428c35ad9f8d72161bf8fe4d83d6e8ab909d0713806408fbe41cc52b425ba83a1240a7131acf67dcbd13c91a702
3e2f6d3b6fa1f79e4ab3311203f4c000ef20111d9d9e667e1d20939c154a2ea31f847d076163d15c7c5a23142439b1cd681554ef5c4bdd2914cdf018c431ea38
45a9fccf4afba39d1f3e14bec9f0081950730180d5b2036aef39d51b75adc7b92f928898cd0b9560eb2869e4ae2939dcd1e9b26e4eb6d0c18671325e6f4b6b25
45a9fccf4afba39d242755fee924fa0ab33b37268c1ea4b079a7db6b4187e490b97a2a3e67d2a0aa644126c9831a96bd309d519d4682e79889acb13efdd69815
c6b67ff585b7e2723b117a3f8a7edca35f226c76faea925bcc276dd8ca4f1e5e564fd4df2394da61ce5ec34e6f8ad1ca6d49b5c762b0da35213b98d888a071c6
51a837e5b8d59442a723b80f917a4a24fb6480d0a25923d01393f0affe978c3ecb7899d1db30d83aec7135467ac4ef52ca21a0a6862690b72906c2f2def36096
78382380c377b03e4d16f1b22d310591c3f375bcb561ec6a645a31395bfef9ac266646e1b8657f497782296e5ce28731f4b39a5d98abf63976f140577a10391f
027580d1b3676c3a3d96cdf6ab820e469f053643445a83fd4191f4f2906c41908a9202d0bc4d6b2456d659c7b7261cedcbabde83c77bef6c4d7e994038c1ee90
54025f075f0816739d36b737bc46e4adcb9fc4f74941be17e71f71e187584171309d519d4682e79898129243d71d5b430f16ae580cf4dbf0d83872dab4439564
45a9fccf4afba39da6b3a7cb9041d6dc50730180d5b2036a2b059ba8e35d21e9727a1739f5646465699c1945c789c761cd8a6fbbc16ec48eeabea34b5df4a910
de384e0f262483a8706b807646b80371c9c58f0746b439053b92bf4dfd30391b4f8bfb77fa42da9c43b8556c814c35bc66d9a0ded46214268a5d9738360439e2
13da35e35c232c7bf6ac43e363a11095a4e0470aeb99bfd49dcbb62ec80be6b4bf1ee911780421dda723b80f917a4a24fb6480d0a25923d0e952a8e180ad888f
13da35e35c232c7b282c5c516cd64a8c410c32d8907ba1f5231f9f2f52c59d41644126c9831a96bd309d519d4682e79898129243d71d5b4382d093cc68aa8602
aad1d9680bd41201f76c5d3748791679896d914b4246b4362d6bd8cc712a74ad91367badf4aa0c062d6bd8cc712a74ad6b7dc0416e38b2a2c6fbedac785d7cb8
2176e3d4ce25f0d743b8556c814c35bc66d9a0ded462142610068f1e11d1b45eff4c6ac6d233f1b0c24d5b599a40b254ae0c0d5cb5b1e4f5b3d3cd842ade8951
fd80f3b49cb1eb4ba286ab8191b330075911b2e9db277617a5257eba54077ab5021166ac3753b7b831bbfa71d5efb6fe825b843a3aa9ddcdc8c9d94215906b5d
0df24a6bcd644654fe2bbff1d461018a6bbdfae71ece8669b5aef65847efcfefa42f291fada8507bcc5702c4d1e0bcbb4ab3311203f4c0000aea9b76cbd3ba4b
0df24a6bcd644654095ff5d140a3fab950730180d5b2036a22fc33196c39201529e097a863de1e62b9025f0df0c3fb44caecd3c89b2f14c5094af2bd2f40cee3
aad1d9680bd41201f57ab17f4bf64de34da91947f2a33a4744ee0ce7786059f7588614b49193fe94423a705ec505da7d8d2d73ae2f79eec603d083ed70d292cf
dc0246f89eb3193ebdb26157f74ef71e43b8556c814c35bc66d9a0ded462142610068f1e11d1b45eff4c6ac6d233f1b0c24d5b599a40b25429f82ce65935f4c1
fd80f3b49cb1eb4ba286ab8191b330075911b2e9db277617a5257eba54077ab5021166ac3753b7b831bbfa71d5efb6fe825b843a3aa9ddcdc8c9d94215906b5d
aad1d9680bd41201d5ad8bc41bb3ea6371e56c000004378ad5c2943935cd544d9484be22bd6ebe40d5c2943935cd544d315a91a1cebb8dc95c6ec4ed1ca8564a
9f1fd657ac5deda7a723b80f917a4a24fb6480d0a25923d01393f0affe978c3ecb7899d1db30d83aec7135467ac4ef52ca21a0a6862690b72906c2f2def36096
fd80f3b49cb1eb4ba286ab8191b330075911b2e9db277617a5257eba54077ab5021166ac3753b7b831bbfa71d5efb6fe825b843a3aa9ddcdc8c9d94215906b5d
aad1d9680bd412016d2574892784a8d02c02c55d7061fe8f4ce8df748f68da53b1e8b7821a36e0d34ce8df748f68da533162f359b3ecaed189f6d8bf2455d9a3
fd80f3b49cb1eb4ba286ab8191b330075911b2e9db277617a5257eba54077ab5021166ac3753b7b831bbfa71d5efb6fe825b843a3aa9ddcdc8c9d94215906b5d
0df24a6bcd644654696d1ed34ddcb0366bbdfae71ece86697ab9392a3215a664fe74282e1a94c44c059f0a10b16832ef43b8556c814c35bc2b6b19e487b52974
13da35e35c232c7b2fe921c25199d9b2a4e0470aeb99bfd47825549122d843206bf55428c35ad9f8d72161bf8fe4d83d6e8ab909d07138066da9c645acab0ca5
0df24a6bcd644654f413ba645a02fc776bbdfae71ece86697ec2a61a224fe34de5b0fef3938687b08d915cdb7782fd4143b8556c814c35bc2b6b19e487b52974
0df24a6bcd6446549b92b85a790047456bbdfae71ece8669c9dd8787e103eb7c96fbfcbde2bf6c14f943a67a7a7c47f843b8556c814c35bc2b6b19e487b52974
0df24a6bcd6446543ae31ff4830431fc6bbdfae71ece86697ab9392a3215a66476a68280da2f02111d4e452fee093da4a723b80f917a4a24526aec53bf6fa521
13da35e35c232c7b8548215614db6af3a4e0470aeb99bfd4d4f5648b0f05ee884a43651c71ddb49143b8556c814c35bc66d9a0ded46214268a5d9738360439e2
0df24a6bcd6446543e57641f08fb26806bbdfae71ece86697ec2a61a224fe34d167e9fde524d9b751d4e452fee093da4a723b80f917a4a24526aec53bf6fa521
0df24a6bcd64465460d9bd7f86f167476bbdfae71ece8669c9dd8787e103eb7cf7729216938088a0e22f607ecd52a0a543b8556c814c35bc2b6b19e487b52974
13da35e35c232c7bc36f86d7f8415e31a4e0470aeb99bfd460758322e716eab15164d940b0f605ed9f053643445a83fd4191f4f2906c4190540bff2debb453c2